<?xml version="1.0" standalone="yes" ?>
<!-- generated by lshw-B.02.18 -->
<!-- GCC 4.8.5 20150623 (Red Hat 4.8.5-44) -->
<!-- Linux 3.10.0-1127.el7.x86_64 #1 SMP Tue Mar 31 23:36:51 UTC 2020 x86_64 -->
<!-- GNU libc 2 (glibc 2.17) -->
<list>
  <node id="network:0" claimed="true" class="network" handle="PCI:0000:3b:00.0" modalias="pci:v00008086d000010FBsv0000152Dsd000089D1bc02sc00i00">
   <description>Ethernet interface</description>
   <product>82599ES 10-Gigabit SFI/SFP+ Network Connection</product>
   <vendor>Intel Corporation</vendor>
   <physid>0</physid>
   <subsysproduct>QUANTA Computer Inc</subsysproduct>
   <subsysvendor>QUANTA Computer Inc</subsysvendor>
   <businfo>pci@0000:3b:00.0</businfo>
   <logicalname>enp59s0f0</logicalname>
   <version>01</version>
   <serial>2c:60:0c:66:a3:71</serial>
   <size units="bit/s">10000000000</size>
   <capacity>10000000000</capacity>
   <width units="bits">64</width>
   <clock units="Hz">33000000</clock>
   <configuration>
    <setting id="autonegotiation" value="off" />
    <setting id="broadcast" value="yes" />
    <setting id="driver" value="ixgbe" />
    <setting id="driverversion" value="5.1.0-k-rh7.7" />
    <setting id="duplex" value="full" />
    <setting id="firmware" value="0x800004e0, 1.808.0" />
    <setting id="ip" value="10.16.10.203" />
    <setting id="latency" value="0" />
    <setting id="link" value="yes" />
    <setting id="multicast" value="yes" />
    <setting id="speed" value="10Gbit/s" />
   </configuration>
   <capabilities>
    <capability id="pm" >Power Management</capability>
    <capability id="msi" >Message Signalled Interrupts</capability>
    <capability id="msix" >MSI-X</capability>
    <capability id="pciexpress" >PCI Express</capability>
    <capability id="vpd" >Vital Product Data</capability>
    <capability id="bus_master" >bus mastering</capability>
    <capability id="cap_list" >PCI capabilities listing</capability>
    <capability id="rom" >extension ROM</capability>
    <capability id="ethernet" />
    <capability id="physical" >Physical interface</capability>
    <capability id="fibre" >optical fibre</capability>
    <capability id="10000bt-fd" >10Gbit/s (full duplex)</capability>
   </capabilities>
   <resources>
    <resource type="irq" value="34" />
    <resource type="memory" value="b8580000-b85fffff" />
    <resource type="ioport" value="7020(size=32)" />
    <resource type="memory" value="b8604000-b8607fff" />
    <resource type="memory" value="b8500000-b857ffff" />
    <resource type="memory" value="b8300000-b83fffff" />
    <resource type="memory" value="b8200000-b82fffff" />
   </resources>
   <hints>
    <hint name="icon" value="network" />
    <hint name="pci.class" value="0x200" />
    <hint name="pci.device" value="0x10FB" />
    <hint name="pci.subdevice" value="0x89D1" />
    <hint name="pci.subvendor" value="0x152D" />
    <hint name="pci.vendor" value="0x8086" />
   </hints>
  </node>
  <node id="network:1" claimed="true" class="network" handle="PCI:0000:3b:00.1" modalias="pci:v00008086d000010FBsv0000152Dsd000089D1bc02sc00i00">
   <description>Ethernet interface</description>
   <product>82599ES 10-Gigabit SFI/SFP+ Network Connection</product>
   <vendor>Intel Corporation</vendor>
   <physid>0.1</physid>
   <subsysproduct>QUANTA Computer Inc</subsysproduct>
   <subsysvendor>QUANTA Computer Inc</subsysvendor>
   <businfo>pci@0000:3b:00.1</businfo>
   <logicalname>enp59s0f1</logicalname>
   <version>01</version>
   <serial>2c:60:0c:66:a3:72</serial>
   <capacity>10000000000</capacity>
   <width units="bits">64</width>
   <clock units="Hz">33000000</clock>
   <configuration>
    <setting id="autonegotiation" value="off" />
    <setting id="broadcast" value="yes" />
    <setting id="driver" value="ixgbe" />
    <setting id="driverversion" value="5.1.0-k-rh7.7" />
    <setting id="firmware" value="0x800004e0, 1.808.0" />
    <setting id="latency" value="0" />
    <setting id="link" value="no" />
    <setting id="multicast" value="yes" />
   </configuration>
   <capabilities>
    <capability id="pm" >Power Management</capability>
    <capability id="msi" >Message Signalled Interrupts</capability>
    <capability id="msix" >MSI-X</capability>
    <capability id="pciexpress" >PCI Express</capability>
    <capability id="vpd" >Vital Product Data</capability>
    <capability id="bus_master" >bus mastering</capability>
    <capability id="cap_list" >PCI capabilities listing</capability>
    <capability id="rom" >extension ROM</capability>
    <capability id="ethernet" />
    <capability id="physical" >Physical interface</capability>
    <capability id="fibre" >optical fibre</capability>
    <capability id="10000bt-fd" >10Gbit/s (full duplex)</capability>
   </capabilities>
   <resources>
    <resource type="irq" value="86" />
    <resource type="memory" value="b8480000-b84fffff" />
    <resource type="ioport" value="7000(size=32)" />
    <resource type="memory" value="b8600000-b8603fff" />
    <resource type="memory" value="b8400000-b847ffff" />
    <resource type="memory" value="b8100000-b81fffff" />
    <resource type="memory" value="b8000000-b80fffff" />
   </resources>
   <hints>
    <hint name="icon" value="network" />
    <hint name="pci.class" value="0x200" />
    <hint name="pci.device" value="0x10FB" />
    <hint name="pci.subdevice" value="0x89D1" />
    <hint name="pci.subvendor" value="0x152D" />
    <hint name="pci.vendor" value="0x8086" />
   </hints>
  </node>
  <node id="network" claimed="true" class="network" modalias="usb:v046BpFFB0d0100dc02dsc00dp00ic02isc06ip00in00">
   <description>Ethernet interface</description>
   <physid>1</physid>
   <businfo>usb@1:13.2</businfo>
   <logicalname>usb0</logicalname>
   <serial>ba:1e:5b:f1:1e:04</serial>
   <configuration>
    <setting id="broadcast" value="yes" />
    <setting id="driver" value="cdc_ether" />
    <setting id="driverversion" value="22-Aug-2005" />
    <setting id="firmware" value="CDC Ethernet Device" />
    <setting id="link" value="yes" />
    <setting id="multicast" value="yes" />
   </configuration>
   <capabilities>
    <capability id="ethernet" />
    <capability id="physical" >Physical interface</capability>
   </capabilities>
   <hints>
    <hint name="icon" value="network" />
   </hints>
  </node>
</list>
